Version 4
SHEET 1 1972 1380
WIRE 208 -112 -80 -112
WIRE 336 -112 272 -112
WIRE 1248 -64 992 -64
WIRE 992 -48 992 -64
WIRE -192 -16 -240 -16
WIRE -80 -16 -80 -112
WIRE -80 -16 -112 -16
WIRE -32 -16 -80 -16
WIRE 96 -16 48 -16
WIRE 208 -16 96 -16
WIRE 1248 -16 1248 -64
WIRE 336 0 336 -112
WIRE 336 0 272 0
WIRE 416 0 336 0
WIRE 480 0 416 0
WIRE 208 16 176 16
WIRE -240 48 -240 -16
WIRE 96 64 96 -16
WIRE 1152 64 880 64
WIRE 1408 64 1344 64
WIRE 880 80 880 64
WIRE 176 96 176 16
WIRE 272 96 176 96
WIRE 416 96 416 0
WIRE 416 96 352 96
WIRE 176 128 176 96
WIRE 1152 128 992 128
WIRE 992 144 992 128
WIRE -240 224 -240 128
WIRE 96 224 96 128
WIRE 96 224 -240 224
WIRE 176 224 176 208
WIRE 176 224 96 224
WIRE 480 224 176 224
WIRE 480 256 480 224
WIRE 1312 256 1312 240
WIRE 1184 272 1184 240
WIRE -80 352 -240 352
WIRE 128 352 0 352
WIRE 1184 368 1184 352
WIRE -240 384 -240 352
WIRE 128 416 128 352
WIRE -240 496 -240 464
WIRE 128 496 128 480
WIRE -16 688 -80 688
WIRE 384 688 48 688
WIRE 816 688 816 656
WIRE 960 688 960 656
WIRE 816 800 816 768
WIRE 960 800 960 768
WIRE -192 816 -240 816
WIRE -80 816 -80 688
WIRE -80 816 -112 816
WIRE -32 816 -80 816
WIRE 96 816 48 816
WIRE 208 816 96 816
WIRE 384 832 384 688
WIRE 384 832 272 832
WIRE 416 832 384 832
WIRE 448 832 416 832
WIRE 560 832 528 832
WIRE 592 832 560 832
WIRE 208 848 176 848
WIRE 560 864 560 832
WIRE -240 880 -240 816
WIRE 96 896 96 816
WIRE 176 928 176 848
WIRE 272 928 176 928
WIRE 416 928 416 832
WIRE 416 928 352 928
WIRE 176 960 176 928
WIRE 560 960 560 928
WIRE -240 1056 -240 960
WIRE 96 1056 96 960
WIRE 96 1056 -240 1056
WIRE 176 1056 176 1040
WIRE 176 1056 96 1056
WIRE 480 1056 176 1056
WIRE 480 1088 480 1056
WIRE -80 1184 -240 1184
WIRE 128 1184 0 1184
WIRE -240 1216 -240 1184
WIRE 128 1248 128 1184
WIRE -240 1328 -240 1296
WIRE 128 1328 128 1312
FLAG 480 256 0
FLAG 480 0 second
FLAG 128 496 0
FLAG -240 496 0
FLAG 880 160 0
FLAG 992 32 0
FLAG 992 224 0
FLAG 1312 256 0
FLAG 1184 368 0
FLAG 1408 64 swOUT
FLAG 480 1088 0
FLAG 592 832 nonIdeal
FLAG 128 1328 0
FLAG -240 1328 0
FLAG 816 800 0
FLAG 960 800 0
FLAG 816 656 +5V
FLAG 960 656 -5V
FLAG 240 864 +5V
FLAG 240 800 -5V
FLAG 560 960 0
SYMBOL res -96 -32 R90
WINDOW 0 0 56 VBottom 2
WINDOW 3 32 56 VTop 2
SYMATTR InstName R1
SYMATTR Value 100k
SYMBOL res 64 -32 R90
WINDOW 0 0 56 VBottom 2
WINDOW 3 32 56 VTop 2
SYMATTR InstName R2
SYMATTR Value 100k
SYMBOL cap 272 -128 R90
WINDOW 0 0 32 VBottom 2
WINDOW 3 32 32 VTop 2
SYMATTR InstName C1
SYMATTR Value 160n
SYMBOL cap 112 128 R180
WINDOW 0 24 56 Left 2
WINDOW 3 24 8 Left 2
SYMATTR InstName C2
SYMATTR Value 160n
SYMBOL res 160 112 R0
SYMATTR InstName R3
SYMATTR Value 1.71k
SYMBOL res 368 80 R90
WINDOW 0 0 56 VBottom 2
WINDOW 3 32 56 VTop 2
SYMATTR InstName R4
SYMATTR Value 1k
SYMBOL OpAmps\\opamp 240 64 M180
SYMATTR InstName U1
SYMBOL voltage -240 32 R0
WINDOW 123 24 124 Left 2
WINDOW 39 0 0 Left 0
SYMATTR Value2 AC 1
SYMATTR InstName V1
SYMATTR Value ""
SYMBOL res 16 336 R90
WINDOW 0 0 56 VBottom 2
WINDOW 3 32 56 VTop 2
SYMATTR InstName R13
SYMATTR Value 1k
SYMBOL cap 112 416 R0
SYMATTR InstName C7
SYMATTR Value 32n
SYMBOL voltage -240 368 R0
WINDOW 123 24 124 Left 2
WINDOW 39 0 0 Left 0
SYMATTR Value2 AC 1
SYMATTR InstName V2
SYMATTR Value ""
SYMBOL Switches\\ADG412 1248 112 R0
SYMATTR InstName U2
SYMBOL voltage 880 64 R0
WINDOW 123 0 0 Left 0
WINDOW 39 0 0 Left 0
SYMATTR InstName V3
SYMATTR Value 1
SYMBOL voltage 992 -64 R0
WINDOW 123 0 0 Left 0
WINDOW 39 0 0 Left 0
SYMATTR InstName V4
SYMATTR Value 15V
SYMBOL voltage 992 128 R0
WINDOW 123 0 0 Left 0
WINDOW 39 0 0 Left 0
SYMATTR InstName V5
SYMATTR Value 2
SYMBOL voltage 1184 256 R0
WINDOW 123 0 0 Left 0
WINDOW 39 0 0 Left 0
SYMATTR InstName V6
SYMATTR Value -15V
SYMBOL res -96 800 R90
WINDOW 0 0 56 VBottom 2
WINDOW 3 32 56 VTop 2
SYMATTR InstName R5
SYMATTR Value 100k
SYMBOL res 64 800 R90
WINDOW 0 0 56 VBottom 2
WINDOW 3 32 56 VTop 2
SYMATTR InstName R6
SYMATTR Value 100k
SYMBOL cap 48 672 R90
WINDOW 0 0 32 VBottom 2
WINDOW 3 32 32 VTop 2
SYMATTR InstName C3
SYMATTR Value 160n
SYMBOL cap 112 960 R180
WINDOW 0 24 56 Left 2
WINDOW 3 24 8 Left 2
SYMATTR InstName C4
SYMATTR Value 160n
SYMBOL res 160 944 R0
SYMATTR InstName R7
SYMATTR Value 1.71k
SYMBOL res 368 912 R90
WINDOW 0 0 56 VBottom 2
WINDOW 3 32 56 VTop 2
SYMATTR InstName R8
SYMATTR Value 1k
SYMBOL voltage -240 864 R0
WINDOW 123 24 124 Left 2
WINDOW 39 0 0 Left 0
SYMATTR Value2 AC 1
SYMATTR InstName V7
SYMATTR Value ""
SYMBOL res 16 1168 R90
WINDOW 0 0 56 VBottom 2
WINDOW 3 32 56 VTop 2
SYMATTR InstName R9
SYMATTR Value 1k
SYMBOL cap 112 1248 R0
SYMATTR InstName C5
SYMATTR Value 32n
SYMBOL voltage -240 1200 R0
WINDOW 123 24 124 Left 2
WINDOW 39 0 0 Left 0
SYMATTR Value2 AC 1
SYMATTR InstName V8
SYMATTR Value ""
SYMBOL voltage 816 672 R0
WINDOW 123 0 0 Left 0
WINDOW 39 0 0 Left 0
SYMATTR InstName V9
SYMATTR Value 5
SYMBOL voltage 960 672 R0
WINDOW 123 0 0 Left 0
WINDOW 39 0 0 Left 0
SYMATTR InstName V10
SYMATTR Value -5
SYMBOL OpAmps\\ADA4077 240 896 M180
SYMATTR InstName U3
SYMBOL res 544 816 R90
WINDOW 0 0 56 VBottom 2
WINDOW 3 32 56 VTop 2
SYMATTR InstName R10
SYMATTR Value 180
SYMBOL cap 544 864 R0
SYMATTR InstName C6
SYMATTR Value 160n
TEXT 472 -80 Left 2 !.ac oct 100 1 100k
TEXT 472 -128 Left 2 !.lib opamp.sub
TEXT 1408 152 Left 2 ;.dc V5 0 5 0.2
TEXT -248 -232 Left 2 ;AC Sweep Simulation for LPF using generic op-amp model - requires lib import
TEXT 1000 -232 Left 2 ;DC Sweep Simulation for ADG412 switch
TEXT -248 600 Left 2 ;AC Sweep Simulation for LPF using generic op-amp model - requires lib import
RECTANGLE Normal 704 -208 -336 544 2
RECTANGLE Normal 1632 544 752 -208 2
RECTANGLE Normal 704 624 -336 1376 2
