Version 4
SHEET 1 1820 680
WIRE 128 -16 128 -80
WIRE 96 0 -176 0
WIRE 96 32 -16 32
WIRE -176 48 -176 0
WIRE 736 48 736 32
WIRE 848 48 848 32
WIRE 368 80 272 80
WIRE 592 80 448 80
WIRE 592 112 592 80
WIRE -16 128 -16 112
WIRE 96 128 -16 128
WIRE 736 144 736 128
WIRE 848 144 848 128
WIRE -176 160 -176 128
WIRE 96 160 48 160
WIRE 208 176 208 144
WIRE 48 192 48 160
WIRE 128 272 128 176
WIRE 208 272 208 256
FLAG 128 -80 15
FLAG 128 272 -15
FLAG 592 80 InAmpOut
FLAG 736 144 0
FLAG 848 144 0
FLAG 736 32 15
FLAG 848 32 -15
FLAG 48 192 0
FLAG -176 160 0
FLAG 208 272 0
FLAG 592 112 0
SYMBOL OpAmps\\AD8421 128 80 R0
SYMATTR InstName U1
SYMBOL res -32 16 R0
SYMATTR InstName R1
SYMATTR Value 10k
SYMBOL voltage -176 32 R0
WINDOW 123 -118 54 Left 2
WINDOW 39 0 0 Left 0
SYMATTR Value2 AC 3.3
SYMATTR InstName V1
SYMATTR Value ""
SYMBOL res 464 64 R90
WINDOW 0 0 56 VBottom 2
WINDOW 3 32 56 VTop 2
SYMATTR InstName R2
SYMATTR Value 10k
SYMBOL voltage 736 32 R0
WINDOW 123 0 0 Left 0
WINDOW 39 0 0 Left 0
SYMATTR InstName V3
SYMATTR Value 15
SYMBOL voltage 848 32 R0
WINDOW 123 0 0 Left 0
WINDOW 39 0 0 Left 0
SYMATTR InstName V4
SYMATTR Value -15
SYMBOL voltage 208 160 R0
WINDOW 123 0 0 Left 0
WINDOW 39 0 0 Left 0
SYMATTR InstName V2
SYMATTR Value 0
TEXT 736 408 Left 2 !.ac dec 100 1 1000000
TEXT 736 376 Left 2 ;.tran 1s
TEXT 88 -184 Left 2 ;AC Sweep Simulation for Instrumentation Amplifier
RECTANGLE Normal 1056 448 -352 -160 2
