Version 4
SHEET 1 4500 4856
WIRE 1344 -320 1344 -336
WIRE 400 -304 336 -304
WIRE 528 -304 480 -304
WIRE 576 -304 528 -304
WIRE 784 -304 656 -304
WIRE 1312 -304 1056 -304
WIRE 1472 -288 1376 -288
WIRE 1520 -288 1472 -288
WIRE 1632 -288 1600 -288
WIRE 1648 -288 1632 -288
WIRE 1840 -288 1728 -288
WIRE -64 -272 -160 -272
WIRE 112 -272 0 -272
WIRE 1312 -272 1248 -272
WIRE 1344 -224 1344 -240
WIRE 1056 -192 1056 -304
WIRE 1248 -192 1248 -272
WIRE 1312 -192 1248 -192
WIRE 1472 -192 1472 -288
WIRE 1472 -192 1392 -192
WIRE 2288 -192 2288 -224
WIRE 1248 -176 1248 -192
WIRE 2256 -176 2048 -176
WIRE 592 -160 592 -176
WIRE 672 -160 592 -160
WIRE 1680 -160 1680 -176
WIRE 1632 -144 1632 -288
WIRE 1648 -144 1632 -144
WIRE 2048 -144 2048 -176
WIRE 2256 -144 2176 -144
WIRE -64 -128 -64 -144
WIRE 0 -128 -64 -128
WIRE 1840 -128 1840 -144
WIRE 1840 -128 1712 -128
WIRE 2176 -128 2176 -144
WIRE 1648 -112 1632 -112
WIRE 2576 -96 2432 -96
WIRE 672 -80 672 -96
WIRE 1248 -80 1248 -96
WIRE 1312 -80 1248 -80
WIRE 1472 -80 1392 -80
WIRE 1680 -80 1680 -96
WIRE 592 -64 592 -160
WIRE -64 -48 -64 -128
WIRE 0 -48 0 -64
WIRE 528 -48 528 -304
WIRE 560 -48 528 -48
WIRE 2256 -48 2176 -48
WIRE -272 -32 -304 -32
WIRE -160 -32 -160 -272
WIRE -160 -32 -192 -32
WIRE -96 -32 -160 -32
WIRE 784 -32 784 -304
WIRE 784 -32 624 -32
WIRE 864 -32 784 -32
WIRE -768 -16 -784 -16
WIRE -672 -16 -688 -16
WIRE 112 -16 112 -272
WIRE 112 -16 -32 -16
WIRE 176 -16 112 -16
WIRE 336 -16 336 -304
WIRE 336 -16 272 -16
WIRE 384 -16 336 -16
WIRE 512 -16 464 -16
WIRE 560 -16 512 -16
WIRE 2048 -16 2048 -64
WIRE 2256 -16 2048 -16
WIRE -96 0 -160 0
WIRE 1632 16 1632 -112
WIRE 1648 16 1632 16
WIRE 1760 16 1728 16
WIRE -784 32 -784 -16
WIRE -688 32 -688 -16
WIRE 592 32 592 0
WIRE 672 32 592 32
WIRE -160 48 -160 0
WIRE 512 48 512 -16
WIRE 672 48 672 32
WIRE 1760 48 1760 16
WIRE 2288 48 2288 0
WIRE -1600 64 -1600 48
WIRE -1488 64 -1488 48
WIRE -1312 64 -1312 48
WIRE -1072 64 -1072 48
WIRE -64 64 -64 16
WIRE 0 64 -64 64
WIRE 592 80 592 32
WIRE 1344 80 1344 64
WIRE 2368 80 2368 -32
WIRE 1248 96 1248 -80
WIRE 1312 96 1248 96
WIRE -64 112 -64 64
WIRE 1472 112 1472 -80
WIRE 1472 112 1376 112
WIRE 1504 112 1472 112
WIRE 1632 112 1632 16
WIRE 1632 112 1584 112
WIRE 512 128 512 112
WIRE 672 128 672 112
WIRE 1056 128 1056 -112
WIRE 1312 128 1056 128
WIRE -784 144 -784 112
WIRE -688 144 -688 112
WIRE -688 144 -784 144
WIRE -672 144 -688 144
WIRE 0 144 0 128
WIRE -1600 160 -1600 144
WIRE -1488 160 -1488 144
WIRE -1312 160 -1312 144
WIRE -1072 160 -1072 144
WIRE 1344 208 1344 144
WIRE 144 464 -144 464
WIRE 272 464 208 464
WIRE 1264 512 1264 480
WIRE 1328 512 1264 512
WIRE -256 560 -304 560
WIRE -144 560 -144 464
WIRE -144 560 -176 560
WIRE -96 560 -144 560
WIRE 32 560 -16 560
WIRE 144 560 32 560
WIRE 1264 560 1264 512
WIRE 272 576 272 464
WIRE 272 576 208 576
WIRE 352 576 272 576
WIRE 416 576 352 576
WIRE 144 592 112 592
WIRE 1328 608 1328 512
WIRE 1328 608 1264 608
WIRE -304 624 -304 560
WIRE 32 640 32 560
WIRE 1216 640 1152 640
WIRE 112 672 112 592
WIRE 208 672 112 672
WIRE 352 672 352 576
WIRE 352 672 288 672
WIRE 1264 672 1264 656
WIRE 1328 672 1264 672
WIRE 1264 688 1264 672
WIRE 112 704 112 672
WIRE 1152 704 1152 640
WIRE 1152 704 1104 704
WIRE 1328 736 1264 736
WIRE 1152 768 1152 704
WIRE 1216 768 1152 768
WIRE -304 800 -304 704
WIRE 32 800 32 704
WIRE 32 800 -304 800
WIRE 112 800 112 784
WIRE 112 800 32 800
WIRE 416 800 112 800
WIRE 1264 816 1264 784
WIRE 1296 816 1264 816
WIRE 1328 816 1328 736
WIRE 1328 816 1296 816
WIRE 416 832 416 800
WIRE 1296 848 1296 816
WIRE 16 1216 16 1136
WIRE 800 1216 800 1136
WIRE -80 1296 -192 1296
WIRE 320 1296 112 1296
WIRE 416 1296 320 1296
WIRE 704 1296 416 1296
WIRE 944 1296 896 1296
WIRE -1264 1328 -1264 1296
WIRE -80 1360 -192 1360
WIRE 320 1360 320 1296
WIRE 704 1360 592 1360
WIRE 944 1360 944 1296
WIRE -1264 1440 -1264 1408
WIRE 80 1520 80 1472
WIRE 320 1520 320 1440
WIRE 864 1520 864 1472
WIRE -48 1536 -48 1472
WIRE 736 1536 736 1472
WIRE 2496 1536 2208 1536
WIRE 2624 1536 2560 1536
WIRE 1408 1568 1248 1568
WIRE 1616 1568 1488 1568
WIRE 2096 1632 2048 1632
WIRE 2208 1632 2208 1536
WIRE 2208 1632 2176 1632
WIRE 2256 1632 2208 1632
WIRE 2384 1632 2336 1632
WIRE 2496 1632 2384 1632
WIRE -864 1648 -992 1648
WIRE -784 1648 -864 1648
WIRE 2624 1648 2624 1536
WIRE 2624 1648 2560 1648
WIRE 2704 1648 2624 1648
WIRE 2800 1648 2704 1648
WIRE -992 1664 -992 1648
WIRE 2496 1664 2464 1664
WIRE 1376 1680 1376 1664
WIRE 1456 1680 1376 1680
WIRE 416 1696 416 1296
WIRE 1008 1696 416 1696
WIRE 1248 1696 1248 1568
WIRE 1248 1696 1088 1696
WIRE 2384 1712 2384 1632
WIRE -864 1728 -864 1648
WIRE 2464 1744 2464 1664
WIRE 2560 1744 2464 1744
WIRE 2704 1744 2704 1648
WIRE 2704 1744 2640 1744
WIRE -992 1760 -992 1744
WIRE -784 1776 -784 1648
WIRE -784 1776 -864 1776
WIRE 1376 1776 1376 1680
WIRE 2464 1776 2464 1744
WIRE 1248 1792 1248 1696
WIRE 1344 1792 1248 1792
WIRE -912 1808 -992 1808
WIRE 1616 1808 1616 1568
WIRE 1616 1808 1408 1808
WIRE 1696 1808 1616 1808
WIRE 1008 1824 320 1824
WIRE 1216 1824 1088 1824
WIRE 1344 1824 1216 1824
WIRE 1216 1856 1216 1824
WIRE -992 1872 -992 1808
WIRE -992 1872 -1088 1872
WIRE -864 1872 -864 1824
WIRE -720 1872 -864 1872
WIRE 2384 1872 2384 1776
WIRE 2464 1872 2464 1856
WIRE 2464 1872 2384 1872
WIRE 2768 1872 2464 1872
WIRE -864 1888 -864 1872
WIRE 1376 1888 1376 1840
WIRE 1456 1888 1376 1888
WIRE 2768 1904 2768 1872
WIRE 1376 1920 1376 1888
WIRE -800 1936 -864 1936
WIRE -992 1968 -992 1872
WIRE -912 1968 -992 1968
WIRE 16 1968 16 1888
WIRE 784 1968 784 1888
WIRE 1216 1968 1216 1936
WIRE -864 2016 -864 1984
WIRE -832 2016 -864 2016
WIRE -800 2016 -800 1936
WIRE -800 2016 -832 2016
WIRE -80 2048 -192 2048
WIRE 320 2048 320 1824
WIRE 320 2048 112 2048
WIRE 688 2048 320 2048
WIRE 944 2048 880 2048
WIRE -832 2064 -832 2016
WIRE -80 2112 -192 2112
WIRE 688 2112 560 2112
WIRE 944 2112 944 2048
WIRE 320 2128 320 2048
WIRE 80 2272 80 2224
WIRE 320 2272 320 2208
WIRE 848 2272 848 2224
WIRE -48 2288 -48 2224
WIRE 720 2288 720 2224
FLAG -1600 160 0
FLAG -1488 160 0
FLAG -1600 48 +15V
FLAG -1488 48 -15V
FLAG -160 48 0
FLAG -1312 160 0
FLAG -1312 48 ref
FLAG -304 -32 ref
FLAG -64 -144 +15V
FLAG -64 112 -15V
FLAG 0 -48 0
FLAG 0 144 0
FLAG -1072 160 0
FLAG 592 80 -15V
FLAG 592 -176 +15V
FLAG 272 -16 ref
FLAG 672 -80 0
FLAG 672 128 0
FLAG 512 128 0
FLAG -1072 48 noise
FLAG -672 144 noisy_input
FLAG -672 -16 ref
FLAG -768 -16 noise
FLAG 1760 48 0
FLAG 2288 -224 +15V
FLAG 2288 48 -15V
FLAG 2368 80 0
FLAG 1344 -336 +15V
FLAG 1344 64 +15V
FLAG 1680 -176 +15V
FLAG 1344 -240 -15V
FLAG 1680 -80 -15V
FLAG 1344 208 -15V
FLAG 1840 -144 Vout
FLAG 1840 -288 sense
FLAG -1264 1440 0
FLAG 864 -32 shifted
FLAG -1264 1296 squarewave
FLAG 416 832 0
FLAG 416 576 lowpass
FLAG 1296 848 0
FLAG 1264 480 +15
FLAG 80 1520 0
FLAG -48 1536 -15
FLAG 16 1136 15
FLAG 848 2272 0
FLAG 720 2288 -15
FLAG 784 1888 15
FLAG 80 2272 0
FLAG -48 2288 -15
FLAG 16 1888 15
FLAG 864 1520 0
FLAG 736 1536 -15
FLAG 800 1136 15
FLAG 944 1360 0
FLAG 944 2112 0
FLAG -1088 1872 squarewave
FLAG 1376 1920 -15
FLAG 1376 1664 15
FLAG 1456 1744 0
FLAG 1456 1952 0
FLAG 1216 1968 0
FLAG 1696 1808 mult
FLAG 320 1520 0
FLAG 320 2272 0
FLAG -832 2064 0
FLAG 2768 1904 0
FLAG 2800 1648 second
FLAG 2048 1632 mult
FLAG -192 1296 ref
FLAG 592 1360 squarewave
FLAG -192 2112 squarewave
FLAG -192 2048 ref
FLAG -192 1360 SQ_inv
FLAG -720 1872 SQ_inv
FLAG 560 2112 SQ_inv
FLAG -992 1760 0
SYMBOL cap 0 -288 R90
WINDOW 0 0 32 VBottom 2
WINDOW 3 32 32 VTop 2
SYMATTR InstName C1
SYMATTR Value 1ĄF
SYMBOL OpAmps\\OP747 -64 -80 R0
SYMATTR InstName U1
SYMBOL voltage -1600 48 R0
WINDOW 123 0 0 Left 0
WINDOW 39 0 0 Left 0
SYMATTR InstName V1
SYMATTR Value +15
SYMBOL voltage -1488 48 R0
WINDOW 123 0 0 Left 0
WINDOW 39 0 0 Left 0
SYMATTR InstName V2
SYMATTR Value -15
SYMBOL res -176 -48 R90
WINDOW 0 0 56 VBottom 2
WINDOW 3 32 56 VTop 2
SYMATTR InstName R1
SYMATTR Value 1k
SYMBOL Misc\\signal -1312 48 R0
WINDOW 123 0 0 Left 0
WINDOW 39 0 0 Left 0
SYMATTR InstName V3
SYMATTR Value SINE(0 5 10000)
SYMBOL cap -16 -128 R0
SYMATTR InstName C2
SYMATTR Value 0.1Ą
SYMBOL cap -16 64 R0
SYMATTR InstName C3
SYMATTR Value 0.1Ą
SYMBOL bv -1072 48 R0
SYMATTR InstName B1
SYMATTR Value V=white(2e6*time)
SYMBOL OpAmps\\OP747 592 -96 R0
SYMATTR InstName U2
SYMBOL res 672 -320 R90
WINDOW 0 0 56 VBottom 2
WINDOW 3 32 56 VTop 2
SYMATTR InstName R4
SYMATTR Value 10k
SYMBOL cap 656 -160 R0
SYMATTR InstName C4
SYMATTR Value 0.1Ą
SYMBOL cap 656 48 R0
SYMATTR InstName C5
SYMATTR Value 0.1Ą
SYMBOL res 480 -32 R90
WINDOW 0 0 56 VBottom 2
WINDOW 3 32 56 VTop 2
SYMATTR InstName R2
SYMATTR Value 3.532k
SYMBOL res 496 -320 R90
WINDOW 0 0 56 VBottom 2
WINDOW 3 32 56 VTop 2
SYMATTR InstName R3
SYMATTR Value 10k
SYMBOL cap 496 48 R0
SYMATTR InstName C6
SYMATTR Value 0.1Ą
SYMBOL OpAmps\\OP747 1344 -224 M180
SYMATTR InstName U3
SYMBOL OpAmps\\OP747 1344 48 R0
SYMATTR InstName U4
SYMBOL OpAmps\\OP747 1680 -192 R0
SYMATTR InstName U5
SYMBOL res 1408 -208 R90
WINDOW 0 0 56 VBottom 2
WINDOW 3 32 56 VTop 2
SYMATTR InstName R5
SYMATTR Value 10k
SYMBOL res 1232 -192 R0
SYMATTR InstName R6
SYMATTR Value 2k
SYMBOL res -800 16 R0
SYMATTR InstName R8
SYMATTR Value 10k
SYMBOL res -704 16 R0
SYMATTR InstName R9
SYMATTR Value 10k
SYMBOL res 1616 -304 R90
WINDOW 0 0 56 VBottom 2
WINDOW 3 32 56 VTop 2
SYMATTR InstName R10
SYMATTR Value 10k
SYMBOL res 1744 -304 R90
WINDOW 0 0 56 VBottom 2
WINDOW 3 32 56 VTop 2
SYMATTR InstName R11
SYMATTR Value 10k
SYMBOL res 1600 96 R90
WINDOW 0 0 56 VBottom 2
WINDOW 3 32 56 VTop 2
SYMATTR InstName R12
SYMATTR Value 10k
SYMBOL res 1744 0 R90
WINDOW 0 0 56 VBottom 2
WINDOW 3 32 56 VTop 2
SYMATTR InstName R13
SYMATTR Value 10k
SYMBOL OpAmps\\AD8421 2288 -96 R0
SYMATTR InstName U6
SYMBOL res 2160 -144 R0
SYMATTR InstName R14
SYMATTR Value 2.2
SYMBOL res 1408 -96 R90
WINDOW 0 0 56 VBottom 2
WINDOW 3 32 56 VTop 2
SYMATTR InstName R7
SYMATTR Value 10k
SYMBOL Misc\\signal 1056 -208 R0
WINDOW 123 0 0 Left 0
WINDOW 39 0 0 Left 0
SYMATTR InstName V6
SYMATTR Value SINE(0 1 300k)
SYMBOL Misc\\signal 2048 -160 R0
WINDOW 123 0 0 Left 0
WINDOW 39 0 0 Left 0
SYMATTR InstName V4
SYMATTR Value SINE(0 1 300)
SYMBOL voltage -1264 1312 R0
WINDOW 123 0 0 Left 0
WINDOW 39 0 0 Left 0
SYMATTR InstName V5
SYMATTR Value PULSE(-5 5 0 1u 1u 0.00005 0.0001)
SYMBOL res -160 544 R90
WINDOW 0 0 56 VBottom 2
WINDOW 3 32 56 VTop 2
SYMATTR InstName R20
SYMATTR Value 1k
SYMBOL res 0 544 R90
WINDOW 0 0 56 VBottom 2
WINDOW 3 32 56 VTop 2
SYMATTR InstName R21
SYMATTR Value 1k
SYMBOL cap 208 448 R90
WINDOW 0 0 32 VBottom 2
WINDOW 3 32 32 VTop 2
SYMATTR InstName C7
SYMATTR Value 0.1Ą
SYMBOL cap 48 704 R180
WINDOW 0 24 56 Left 2
WINDOW 3 24 8 Left 2
SYMATTR InstName C8
SYMATTR Value 0.1Ą
SYMBOL res 96 688 R0
SYMATTR InstName R23
SYMATTR Value 1k
SYMBOL res 304 656 R90
WINDOW 0 0 56 VBottom 2
WINDOW 3 32 56 VTop 2
SYMATTR InstName R24
SYMATTR Value 1k
SYMBOL OpAmps\\opamp 176 640 M180
SYMATTR InstName U7
SYMBOL voltage -304 608 R0
WINDOW 123 24 124 Left 2
WINDOW 39 0 0 Left 0
SYMATTR Value2 AC 1
SYMATTR InstName V9
SYMATTR Value ""
SYMBOL CMOSN 1216 688 R0
SYMATTR InstName M1
SYMBOL CMOSP 1216 560 R0
SYMATTR InstName M2
SYMBOL Switches\\ADG412 16 1344 R0
SYMATTR InstName U9
SYMBOL Switches\\ADG412 784 2096 R0
SYMATTR InstName U10
SYMBOL Switches\\ADG412 16 2096 R0
SYMATTR InstName U11
SYMBOL Switches\\ADG412 800 1344 R0
SYMATTR InstName U12
SYMBOL OpAmps\\OP747 1376 1744 R0
SYMATTR InstName U16
SYMBOL cap 1440 1680 R0
SYMATTR InstName C12
SYMATTR Value 0.1Ą
SYMBOL cap 1440 1888 R0
SYMATTR InstName C13
SYMATTR Value 0.1Ą
SYMBOL res 1104 1680 R90
WINDOW 0 0 56 VBottom 2
WINDOW 3 32 56 VTop 2
SYMATTR InstName R27
SYMATTR Value 10k
SYMBOL res 1504 1552 R90
WINDOW 0 0 56 VBottom 2
WINDOW 3 32 56 VTop 2
SYMATTR InstName R28
SYMATTR Value 10k
SYMBOL res 1104 1808 R90
WINDOW 0 0 56 VBottom 2
WINDOW 3 32 56 VTop 2
SYMATTR InstName R29
SYMATTR Value 10K
SYMBOL res 1200 1840 R0
SYMATTR InstName R30
SYMATTR Value 10K
SYMBOL res 304 1344 R0
SYMATTR InstName R31
SYMATTR Value 10K
SYMBOL res 304 2112 R0
SYMATTR InstName R32
SYMATTR Value 10K
SYMBOL CMOSN -912 1888 R0
SYMATTR InstName M3
SYMATTR Value2 l=130n w=200n
SYMBOL CMOSP -912 1728 R0
SYMATTR InstName M4
SYMATTR Value2 l=130n w=400n
SYMBOL res 2192 1616 R90
WINDOW 0 0 56 VBottom 2
WINDOW 3 32 56 VTop 2
SYMATTR InstName R33
SYMATTR Value 1k
SYMBOL res 2352 1616 R90
WINDOW 0 0 56 VBottom 2
WINDOW 3 32 56 VTop 2
SYMATTR InstName R34
SYMATTR Value 1k
SYMBOL cap 2560 1520 R90
WINDOW 0 0 32 VBottom 2
WINDOW 3 32 32 VTop 2
SYMATTR InstName C14
SYMATTR Value 160n
SYMBOL cap 2400 1776 R180
WINDOW 0 24 56 Left 2
WINDOW 3 24 8 Left 2
SYMATTR InstName C15
SYMATTR Value 160n
SYMBOL res 2448 1760 R0
SYMATTR InstName R35
SYMATTR Value 10k
SYMBOL res 2656 1728 R90
WINDOW 0 0 56 VBottom 2
WINDOW 3 32 56 VTop 2
SYMATTR InstName R36
SYMATTR Value 10k
SYMBOL OpAmps\\opamp 2528 1712 M180
SYMATTR InstName U17
SYMBOL voltage -992 1648 R0
WINDOW 123 0 0 Left 0
WINDOW 39 0 0 Left 0
SYMATTR InstName V7
SYMATTR Value 5
TEXT -184 -368 Left 2 ;Integrator as Phase Shifter
TEXT 376 -72 Left 2 ;Trimmer
TEXT 272 -368 Left 2 ;All-pass phase shifter (include Bode plot in report)
TEXT 1720 -448 Left 2 ;Instrumentation Amplifier
TEXT 568 648 Left 2 ;.ac oct 100 1 100k
TEXT 568 600 Left 2 !.lib opamp.sub
TEXT 0 360 Left 2 ;2nd Order Butterworth, cut off 10k
TEXT 992 808 Left 2 !.include ibm130.lib
TEXT 1080 368 Left 2 ;CMOS Inverter
TEXT -72 1200 Left 2 ;SW1
TEXT 696 1952 Left 2 ;SW4
TEXT -72 1952 Left 2 ;SW3
TEXT 712 1200 Left 2 ;SW2
TEXT 2216 1456 Left 2 ;.ac oct 100 1 100k
TEXT 2216 1408 Left 2 !.lib opamp.sub
TEXT 160 -440 Left 2 ;Phase Shifters
TEXT -1288 1120 Left 2 ;SQwave in phase with ref
TEXT 2360 2112 Left 2 !.tran 4ms
TEXT 1568 456 Left 2 ;Note: Advised against including InAmp\n1. No common mode input here\n2. No common mode between input and output signal
TEXT 2216 992 Left 2 ;Output Filter: Butterworth Low Pass
TEXT 536 992 Left 2 ;Analogue Switch-based Multiplier
RECTANGLE Normal 2704 272 1024 -416 2
RECTANGLE Normal 864 896 -400 384 2
RECTANGLE Normal 1440 896 896 384 2
RECTANGLE Normal -400 -416 1008 272 2
RECTANGLE Normal 1808 2384 -400 1008 2
RECTANGLE Normal 2960 2384 1872 1008 2
